* eeschema netlist version 1.1 (spice format) creation date: wednesday 17 april 2013 03:26:37 pm ist
.include ua741.sub

r3  3 0 r
* Plotting option vplot8_1
c1  3 4 c
V_u4 1 4 0
v1  7 0 sine(    )
V_u1 6 1 0
V_u2 1 5 0
r2  3 5 10000
r1  6 7 1000
x1  1 0 3 ua741

.ac dec 10 1Hz 100000Hz

* Control Statements 
.control
run
plot v(3) 
plot i(V_u4)
plot i(V_u1)
plot i(V_u2)
.endc
.end
