.dc  v1 1e-00 4e-00 2e-00 v2 1e-00 5e-00 3e-00
