.model mos_n NMOS( Cgso=9.027n Tox=100n Rs=1.624m Tt=288n Vto=2.831 
+ Pb=.8 Rg=13.89 Theta=0 Phi=.6 Fc=.5 
+ Delta=0 Vmax=0 Kappa=0 Rds=444.4K Level=3 
+ L=2u Mj=.5 Uo=600 Eta=0 W=.3 
+ Cgdo=1.679n Gamma=0 Xj=0 Rd=1.031m Cbd=3.229n 
+ Is=194E-18 N=1 Kp=20.53u )